Version 4
SHEET 1 1512 680
WIRE -256 -48 -256 -112
WIRE -608 32 -608 0
WIRE -480 32 -480 0
WIRE 368 112 304 112
WIRE 496 112 448 112
WIRE -608 128 -608 112
WIRE -480 128 -480 112
WIRE -256 176 -256 32
WIRE -48 176 -256 176
WIRE 80 176 32 176
WIRE 160 176 80 176
WIRE 304 176 304 112
WIRE 304 176 240 176
WIRE 320 176 304 176
WIRE 480 192 384 192
WIRE 496 192 496 112
WIRE 496 192 480 192
WIRE 80 208 80 176
WIRE 320 208 288 208
WIRE -256 224 -256 176
WIRE 208 224 176 224
WIRE 288 224 288 208
WIRE 176 288 176 224
WIRE 80 304 80 288
WIRE 176 400 176 368
WIRE -256 432 -256 304
FLAG 80 304 0
FLAG 176 400 0
FLAG 352 160 VCC
FLAG 352 224 -VCC
FLAG -256 432 -VCC
FLAG -480 0 VCC
FLAG -608 0 -VCC
FLAG 480 192 out
FLAG -480 128 0
FLAG -608 128 0
FLAG -256 -112 VCC
DATAFLAG 496 112 ""
DATAFLAG -176 176 ""
DATAFLAG 496 192 ""
SYMBOL res 48 160 R90
WINDOW 0 0 56 VBottom 2
WINDOW 3 32 56 VTop 2
SYMATTR InstName RC2
SYMATTR Value 10k
SYMBOL res 64 192 R0
SYMATTR InstName RC1
SYMATTR Value 10
SYMBOL res 256 160 R90
WINDOW 0 0 56 VBottom 2
WINDOW 3 18 89 VTop 2
SYMATTR InstName R1
SYMATTR Value 1k
SYMBOL res 464 96 R90
WINDOW 0 0 56 VBottom 2
WINDOW 3 32 56 VTop 2
SYMATTR InstName R2
SYMATTR Value 17k
SYMBOL voltage 176 272 R0
WINDOW 123 -47 126 Left 2
WINDOW 39 0 0 Left 0
WINDOW 3 19 93 Left 2
WINDOW 0 -47 98 Left 2
SYMATTR Value2 AC 1
SYMATTR Value SINE(0 0.061m 4k)
SYMATTR InstName Vin
SYMBOL voltage -480 16 R0
WINDOW 123 0 0 Left 0
WINDOW 39 0 0 Left 0
SYMATTR InstName V1
SYMATTR Value 15
SYMBOL voltage -608 16 R0
WINDOW 123 0 0 Left 0
WINDOW 39 0 0 Left 0
SYMATTR InstName V2
SYMATTR Value -15
SYMBOL OpAmps\\AD820 352 128 R0
WINDOW 0 48 36 Left 2
WINDOW 3 31 83 Left 2
SYMATTR InstName U2
SYMBOL res -272 -64 R0
SYMATTR InstName R3
SYMATTR Value {10k*a}
SYMBOL res -272 208 R0
SYMATTR InstName R4
SYMATTR Value {10k*(1-a)}
SYMBOL res 304 208 R90
WINDOW 0 0 56 VBottom 2
WINDOW 3 32 56 VTop 2
SYMATTR InstName R5
SYMATTR Value 0.944
TEXT -624 256 Left 2 !;op
TEXT -584 312 Left 2 !.param a=0.5
TEXT -712 160 Left 2 ;.func AD() V(out)@1\n.func APS() V(out)@2\n.func PSRR() V(out)@1/V(out)@2
TEXT -888 304 Left 2 !;ac dec  100 .01 10Meg
TEXT -672 416 Left 2 ;.lib AD820.CIR
TEXT -656 368 Left 2 !.tran 0 0.3 0
TEXT -568 520 Left 2 !.Four 4k 15 V(out)
