Version 4
SHEET 1 1108 1524
WIRE -1056 -336 -1056 -368
WIRE 96 -320 96 -368
WIRE -784 -304 -784 -336
WIRE -656 -304 -656 -336
WIRE -512 -304 -512 -352
WIRE -1200 -240 -1200 -272
WIRE 0 -240 -64 -240
WIRE 224 -240 192 -240
WIRE 368 -240 304 -240
WIRE -1056 -224 -1056 -256
WIRE -784 -192 -784 -224
WIRE -656 -192 -656 -224
WIRE -512 -192 -512 -224
WIRE -1200 -112 -1200 -160
WIRE -768 -112 -768 -128
WIRE 624 -112 560 -112
WIRE 784 -112 704 -112
WIRE -1024 -48 -1024 -80
WIRE 32 -48 32 -64
WIRE 160 -48 160 -64
WIRE -768 16 -768 -32
WIRE -1024 64 -1024 32
WIRE -64 80 -64 -240
WIRE -64 80 -224 80
WIRE 16 80 -64 80
WIRE 240 80 208 80
WIRE 368 80 368 -240
WIRE 368 80 320 80
WIRE 560 80 560 -112
WIRE 560 80 368 80
WIRE 576 80 560 80
WIRE 752 96 640 96
WIRE 784 96 784 -112
WIRE 784 96 752 96
WIRE 576 112 512 112
WIRE 512 128 512 112
WIRE -224 176 -224 80
WIRE 512 240 512 208
WIRE -64 416 -64 80
WIRE 0 416 -64 416
WIRE 16 416 0 416
WIRE 240 416 192 416
WIRE 368 416 368 80
WIRE 368 416 320 416
WIRE -64 768 -64 416
WIRE 16 768 -64 768
WIRE 240 768 208 768
WIRE 368 768 368 416
WIRE 368 768 320 768
WIRE -64 1248 -64 768
WIRE 16 1248 -64 1248
WIRE 240 1248 208 1248
WIRE 368 1248 368 768
WIRE 368 1248 320 1248
FLAG -224 176 0
FLAG 0 -176 S1
FLAG 16 144 S2
FLAG 0 480 S3
FLAG 16 832 S4
FLAG 16 1312 S5
FLAG 176 944 0
FLAG 176 1424 0
FLAG 160 592 0
FLAG 176 256 0
FLAG -784 -192 0
FLAG -512 -192 0
FLAG -1200 -112 0
FLAG -1024 64 0
FLAG -1056 -224 0
FLAG -768 16 0
FLAG -656 -192 0
FLAG -784 -336 VCC
FLAG 608 64 VCC
FLAG 96 -368 VCC
FLAG 112 0 VCC
FLAG 96 336 VCC
FLAG 112 1168 VCC
FLAG 112 688 VCC
FLAG -512 -352 S1
FLAG -1200 -272 S2
FLAG -1024 -80 S3
FLAG -1056 -368 S4
FLAG -768 -128 S5
FLAG -656 -336 -VCC
FLAG 48 256 -VCC
FLAG 32 592 -VCC
FLAG 48 944 -VCC
FLAG 48 1424 -VCC
FLAG 608 128 -VCC
FLAG 752 96 OUT
FLAG 512 240 0
FLAG 160 -48 0
FLAG 32 -48 -VCC
DATAFLAG 784 96 ""
DATAFLAG 496 80 ""
DATAFLAG 544 112 ""
SYMBOL OpAmps\\AD820 608 32 R0
SYMATTR InstName U6
SYMBOL voltage -784 -320 R0
WINDOW 123 0 0 Left 0
WINDOW 39 0 0 Left 0
SYMATTR InstName V1
SYMATTR Value 15
SYMBOL voltage -656 -320 R0
WINDOW 123 0 0 Left 0
WINDOW 39 0 0 Left 0
SYMATTR InstName V2
SYMATTR Value -15
SYMBOL voltage -512 -320 R0
WINDOW 123 0 0 Left 0
WINDOW 39 0 0 Left 0
SYMATTR InstName V3
SYMATTR Value {15*u(control==1)}
SYMBOL voltage -1200 -256 R0
WINDOW 123 0 0 Left 0
WINDOW 39 0 0 Left 0
SYMATTR InstName V4
SYMATTR Value {15*u(control==2)}
SYMBOL voltage -1024 -64 R0
WINDOW 123 0 0 Left 0
WINDOW 39 0 0 Left 0
SYMATTR InstName V5
SYMATTR Value {15*u(control==3)}
SYMBOL voltage -1056 -352 R0
WINDOW 123 0 0 Left 0
WINDOW 39 0 0 Left 0
SYMATTR InstName V6
SYMATTR Value {15*u(control==4)}
SYMBOL voltage -768 -128 R0
WINDOW 123 0 0 Left 0
WINDOW 39 0 0 Left 0
SYMATTR InstName V7
SYMATTR Value {15*u(control==5)}
SYMBOL res 320 -256 R90
WINDOW 0 0 56 VBottom 2
WINDOW 3 32 56 VTop 2
SYMATTR InstName R1
SYMATTR Value 1.77k
SYMBOL res 336 64 R90
WINDOW 0 0 56 VBottom 2
WINDOW 3 32 56 VTop 2
SYMATTR InstName R2
SYMATTR Value 2.88k
SYMBOL res 336 400 R90
WINDOW 0 0 56 VBottom 2
WINDOW 3 32 56 VTop 2
SYMATTR InstName R3
SYMATTR Value 4.63k
SYMBOL res 336 752 R90
WINDOW 0 0 56 VBottom 2
WINDOW 3 32 56 VTop 2
SYMATTR InstName R4
SYMATTR Value 8.13k
SYMBOL res 336 1232 R90
WINDOW 0 0 56 VBottom 2
WINDOW 3 32 56 VTop 2
SYMATTR InstName R5
SYMATTR Value 16.8k
SYMBOL res 720 -128 R90
WINDOW 0 0 56 VBottom 2
WINDOW 3 32 56 VTop 2
SYMATTR InstName R6
SYMATTR Value 10k
SYMBOL voltage 512 112 R0
WINDOW 123 24 124 Left 2
WINDOW 39 0 0 Left 0
SYMATTR Value2 AC 1
SYMATTR InstName Vin
SYMATTR Value SINE(0 0.00245m 4k)
SYMBOL Switches\\ADG1212 96 -192 R0
SYMATTR InstName U3
SYMBOL Switches\\ADG1212 112 128 R0
SYMATTR InstName U1
SYMBOL Switches\\ADG1212 96 464 R0
SYMATTR InstName U2
SYMBOL Switches\\ADG1212 112 816 R0
SYMATTR InstName U4
SYMBOL Switches\\ADG1212 112 1296 R0
SYMATTR InstName U5
TEXT -840 176 Left 2 ;.lib AD820.CIR
TEXT -424 176 Left 2 !.op
TEXT -512 64 Left 2 !.ac dec 100 1 1Meg
TEXT -512 304 Left 2 !;tran 0 10m 0 100n
TEXT -520 248 Left 2 ;.FOUR 1khz 15 V(OUT)
TEXT -528 -24 Left 2 !.step param control list 1 2 3 4 5
