Version 4
SHEET 1 960 680
WIRE 144 -128 144 -144
WIRE 288 -128 288 -160
WIRE 0 80 -32 80
WIRE 112 80 80 80
WIRE 384 80 112 80
WIRE 448 80 384 80
WIRE 576 80 528 80
WIRE 640 80 576 80
WIRE 832 96 704 96
WIRE 640 112 624 112
WIRE 112 128 112 80
WIRE 144 128 112 128
WIRE 384 144 208 144
WIRE 576 144 384 144
WIRE 144 160 96 160
WIRE 624 192 624 112
WIRE 832 192 832 96
WIRE 832 192 624 192
WIRE 848 192 832 192
WIRE 864 192 848 192
WIRE 96 208 96 160
FLAG 96 208 0
FLAG -32 160 0
FLAG 144 -144 VDD
FLAG 288 -160 -VDD
FLAG 288 -48 0
FLAG 144 -48 0
FLAG 176 112 VDD
FLAG 672 128 VDD
FLAG 176 176 -VDD
FLAG 672 64 -VDD
FLAG 848 192 Out
DATAFLAG 560 80 ""
DATAFLAG 528 144 ""
DATAFLAG 128 160 ""
DATAFLAG 832 192 ""
DATAFLAG 832 192 ""
DATAFLAG 832 192 ""
DATAFLAG 832 192 ""
DATAFLAG 832 192 ""
SYMBOL res 96 64 R90
WINDOW 0 0 56 VBottom 2
WINDOW 3 32 56 VTop 2
SYMATTR InstName R1
SYMATTR Value 5k
SYMBOL OpAmps\\AD820 176 80 R0
SYMATTR InstName U1
SYMBOL diode 368 80 R0
WINDOW 0 -31 13 Left 2
WINDOW 3 -15 32 Left 2
SYMATTR InstName D1
SYMBOL res 544 64 R90
WINDOW 0 0 56 VBottom 2
WINDOW 3 32 56 VTop 2
SYMATTR InstName R2
SYMATTR Value 5k
SYMBOL diode 592 144 R180
WINDOW 0 35 31 Left 2
WINDOW 3 -10 7 Left 2
SYMATTR InstName D2
SYMBOL OpAmps\\AD820 672 160 M180
SYMATTR InstName U2
SYMBOL voltage -32 64 R0
WINDOW 0 -65 48 Left 2
WINDOW 123 24 124 Left 2
WINDOW 39 0 0 Left 0
SYMATTR InstName V1
SYMATTR Value2 AC 1
SYMATTR Value SINE(0 1 4k)
SYMBOL voltage 144 -144 R0
WINDOW 123 0 0 Left 0
WINDOW 39 0 0 Left 0
SYMATTR InstName V2
SYMATTR Value 15
SYMBOL voltage 288 -144 R0
WINDOW 123 0 0 Left 0
WINDOW 39 0 0 Left 0
SYMATTR InstName V3
SYMATTR Value -15
TEXT 232 8 Left 2 !.op
TEXT 344 8 Left 2 !;ac dec 100 1 10Meg
TEXT 520 -40 Left 2 !.tran 0 4m 0
TEXT 456 -96 Left 2 !.Four 4k 15 V(Out)
